/*--------------------------------*- C++ -*----------------------------------*\
| =========                 |                                                 |
| \\      /  F ield         | foam-extend: Open Source CFD                    |
|  \\    /   O peration     | Version:     4.1                                |
|   \\  /    A nd           | Web:         http://www.foam-extend.org         |
|    \\/     M anipulation  |                                                 |
\*---------------------------------------------------------------------------*/
FoamFile
{
    version     2.0;
    format      ascii;
    class       dictionary;
    object      transportProperties;
}
// * * * * * * * * * * * * * * * * * * * * * * * * * * * * * * * * * * * * * //

transportModel  NEPCM;
type            forcedConvection;

Prt		Prt [0 0 0 0 0 0 0]		0.85;

rho		rho [1 -3 0 0 0 0 0]		996;
Cp		Cp [0 2 -2 -1 0 0 0]		4180;
kappa		kappa [ 1 1 -3 -1 0 0 0 ]	0.628;
mu		mu [ 1 -1 -1 0 0 0 0 ]		8.5e-4;
beta            beta [0 0 0 -1 0 0 0]	2.6e-4;

// ************************************************************************* //
